
*** ChampSim Multicore Out-of-Order Simulator ***

Warmup Instructions: 50000000
Simulation Instructions: 200000000
Number of CPUs: 1
LLC sets: 4096
LLC ways: 8
Off-chip DRAM Size: 8192 MB Channels: 1 Width: 64-bit Data Rate: 3200 MT/s

CPU 0 runs /home/riscv/Documents/NextGenCompArch/Memory/ChampSim-master/dpc3_traces/456.hmmer-327B.champsimtrace.xz
CPU 0 Bimodal branch predictor
Heartbeat CPU 0 instructions: 10000000 cycles: 4817590 heartbeat IPC: 2.07573 cumulative IPC: 2.07573 (Simulation time: 0 hr 0 min 15 sec) 
Heartbeat CPU 0 instructions: 20000003 cycles: 9631324 heartbeat IPC: 2.07739 cumulative IPC: 2.07656 (Simulation time: 0 hr 0 min 30 sec) 
Heartbeat CPU 0 instructions: 30000001 cycles: 14433479 heartbeat IPC: 2.0824 cumulative IPC: 2.0785 (Simulation time: 0 hr 0 min 46 sec) 
Heartbeat CPU 0 instructions: 40000001 cycles: 19243147 heartbeat IPC: 2.07915 cumulative IPC: 2.07866 (Simulation time: 0 hr 1 min 1 sec) 
Heartbeat CPU 0 instructions: 50000003 cycles: 24050605 heartbeat IPC: 2.0801 cumulative IPC: 2.07895 (Simulation time: 0 hr 1 min 16 sec) 

Warmup complete CPU 0 instructions: 50000003 cycles: 24050605 (Simulation time: 0 hr 1 min 16 sec) 

Heartbeat CPU 0 instructions: 60000000 cycles: 29887885 heartbeat IPC: 1.71313 cumulative IPC: 1.71313 (Simulation time: 0 hr 1 min 31 sec) 
Heartbeat CPU 0 instructions: 70000002 cycles: 35717406 heartbeat IPC: 1.71541 cumulative IPC: 1.71427 (Simulation time: 0 hr 1 min 46 sec) 
Heartbeat CPU 0 instructions: 80000002 cycles: 41560707 heartbeat IPC: 1.71136 cumulative IPC: 1.7133 (Simulation time: 0 hr 2 min 1 sec) 
Heartbeat CPU 0 instructions: 90000000 cycles: 48093252 heartbeat IPC: 1.5308 cumulative IPC: 1.66371 (Simulation time: 0 hr 2 min 17 sec) 
Heartbeat CPU 0 instructions: 100000003 cycles: 54191678 heartbeat IPC: 1.63977 cumulative IPC: 1.65887 (Simulation time: 0 hr 2 min 36 sec) 
Heartbeat CPU 0 instructions: 110000000 cycles: 60261481 heartbeat IPC: 1.6475 cumulative IPC: 1.65696 (Simulation time: 0 hr 2 min 55 sec) 
Heartbeat CPU 0 instructions: 120000000 cycles: 66249913 heartbeat IPC: 1.66989 cumulative IPC: 1.65879 (Simulation time: 0 hr 3 min 14 sec) 
Heartbeat CPU 0 instructions: 130000001 cycles: 72113721 heartbeat IPC: 1.70538 cumulative IPC: 1.66448 (Simulation time: 0 hr 3 min 33 sec) 
Heartbeat CPU 0 instructions: 140000001 cycles: 78247121 heartbeat IPC: 1.63042 cumulative IPC: 1.66062 (Simulation time: 0 hr 3 min 51 sec) 
Heartbeat CPU 0 instructions: 150000003 cycles: 84155522 heartbeat IPC: 1.69251 cumulative IPC: 1.66376 (Simulation time: 0 hr 4 min 10 sec) 
Heartbeat CPU 0 instructions: 160000001 cycles: 90062695 heartbeat IPC: 1.69286 cumulative IPC: 1.66636 (Simulation time: 0 hr 4 min 29 sec) 
Heartbeat CPU 0 instructions: 170000001 cycles: 95996519 heartbeat IPC: 1.68525 cumulative IPC: 1.66792 (Simulation time: 0 hr 4 min 48 sec) 
Heartbeat CPU 0 instructions: 180000003 cycles: 101963369 heartbeat IPC: 1.67593 cumulative IPC: 1.66853 (Simulation time: 0 hr 5 min 6 sec) 
Heartbeat CPU 0 instructions: 190000000 cycles: 107919926 heartbeat IPC: 1.67882 cumulative IPC: 1.66926 (Simulation time: 0 hr 5 min 25 sec) 
Heartbeat CPU 0 instructions: 200000002 cycles: 115334061 heartbeat IPC: 1.34878 cumulative IPC: 1.64323 (Simulation time: 0 hr 5 min 45 sec) 
Heartbeat CPU 0 instructions: 210000002 cycles: 122804119 heartbeat IPC: 1.33868 cumulative IPC: 1.6202 (Simulation time: 0 hr 6 min 4 sec) 
Heartbeat CPU 0 instructions: 220000000 cycles: 130517387 heartbeat IPC: 1.29647 cumulative IPC: 1.59674 (Simulation time: 0 hr 6 min 22 sec) 
Heartbeat CPU 0 instructions: 230000000 cycles: 137957703 heartbeat IPC: 1.34403 cumulative IPC: 1.58024 (Simulation time: 0 hr 6 min 41 sec) 
Heartbeat CPU 0 instructions: 240000003 cycles: 145496002 heartbeat IPC: 1.32656 cumulative IPC: 1.56449 (Simulation time: 0 hr 7 min 1 sec) 
Heartbeat CPU 0 instructions: 250000003 cycles: 152926599 heartbeat IPC: 1.34579 cumulative IPC: 1.55188 (Simulation time: 0 hr 7 min 20 sec) 
Finished CPU 0 instructions: 200000000 cycles: 128875994 cumulative IPC: 1.55188 (Simulation time: 0 hr 7 min 20 sec) 

ChampSim completed all CPUs

Region of Interest Statistics

CPU 0 cumulative IPC: 1.55188 instructions: 200000000 cycles: 128875994
L1D TOTAL     ACCESS:   68962640  HIT:   67997429  MISS:     965211
L1D LOAD      ACCESS:   56956680  HIT:   56524074  MISS:     432606
L1D RFO       ACCESS:   12005960  HIT:   11473355  MISS:     532605
L1D PREFETCH  ACCESS:          0  HIT:          0  MISS:          0
L1D WRITEBACK ACCESS:          0  HIT:          0  MISS:          0
L1D PREFETCH  REQUESTED:          0  ISSUED:          0  USEFUL:          0  USELESS:          0
L1D AVERAGE MISS LATENCY: 75.9736 cycles
L1I TOTAL     ACCESS:   33080989  HIT:   33080982  MISS:          7
L1I LOAD      ACCESS:   33080989  HIT:   33080982  MISS:          7
L1I RFO       ACCESS:          0  HIT:          0  MISS:          0
L1I PREFETCH  ACCESS:          0  HIT:          0  MISS:          0
L1I WRITEBACK ACCESS:          0  HIT:          0  MISS:          0
L1I PREFETCH  REQUESTED:          0  ISSUED:          0  USEFUL:          0  USELESS:          0
L1I AVERAGE MISS LATENCY: 217.143 cycles
L2C TOTAL     ACCESS:    1498815  HIT:     919731  MISS:     579084
L2C LOAD      ACCESS:     431802  HIT:     384652  MISS:      47150
L2C RFO       ACCESS:     532599  HIT:        738  MISS:     531861
L2C PREFETCH  ACCESS:          0  HIT:          0  MISS:          0
L2C WRITEBACK ACCESS:     534414  HIT:     534341  MISS:         73
L2C PREFETCH  REQUESTED:          0  ISSUED:          0  USEFUL:          0  USELESS:          0
L2C AVERAGE MISS LATENCY: 101.594 cycles
LLC TOTAL     ACCESS:    1112193  HIT:     918100  MISS:     194093
LLC LOAD      ACCESS:      47150  HIT:      42358  MISS:       4792
LLC RFO       ACCESS:     531861  HIT:     342581  MISS:     189280
LLC PREFETCH  ACCESS:          0  HIT:          0  MISS:          0
LLC WRITEBACK ACCESS:     533182  HIT:     533161  MISS:         21
LLC PREFETCH  REQUESTED:          0  ISSUED:          0  USEFUL:          0  USELESS:          0
LLC AVERAGE MISS LATENCY: 213.593 cycles
Major fault: 0 Minor fault: 2245

DRAM Statistics
 CHANNEL 0
 RQ ROW_BUFFER_HIT:     109496  ROW_BUFFER_MISS:      84576
 DBUS_CONGESTED:       5381
 WQ ROW_BUFFER_HIT:      69658  ROW_BUFFER_MISS:     118571  FULL:          0

 AVG_CONGESTED_CYCLE: 14

CPU 0 Branch Prediction Accuracy: 99.4046% MPKI: 0.26293 Average ROB Occupancy at Mispredict: 88.5701

Branch types
NOT_BRANCH: 191167411 95.5837%
BRANCH_DIRECT_JUMP: 34474 0.017237%
BRANCH_INDIRECT: 11434 0.005717%
BRANCH_CONDITIONAL: 8724251 4.36213%
BRANCH_DIRECT_CALL: 30996 0.015498%
BRANCH_INDIRECT_CALL: 208 0.000104%
BRANCH_RETURN: 31204 0.015602%
BRANCH_OTHER: 0 0%

