
*** ChampSim Multicore Out-of-Order Simulator ***

Warmup Instructions: 50000000
Simulation Instructions: 200000000
Number of CPUs: 1
LLC sets: 8192
LLC ways: 8
Off-chip DRAM Size: 4096 MB Channels: 1 Width: 64-bit Data Rate: 3200 MT/s

CPU 0 runs /home/riscv/Documents/NextGenCompArch/Memory/ChampSim-master/dpc3_traces/456.hmmer-327B.champsimtrace.xz
CPU 0 Bimodal branch predictor
Heartbeat CPU 0 instructions: 10000000 cycles: 4817590 heartbeat IPC: 2.07573 cumulative IPC: 2.07573 (Simulation time: 0 hr 0 min 15 sec) 
Heartbeat CPU 0 instructions: 20000003 cycles: 9631350 heartbeat IPC: 2.07738 cumulative IPC: 2.07655 (Simulation time: 0 hr 0 min 31 sec) 
Heartbeat CPU 0 instructions: 30000001 cycles: 14433504 heartbeat IPC: 2.0824 cumulative IPC: 2.0785 (Simulation time: 0 hr 0 min 49 sec) 
Heartbeat CPU 0 instructions: 40000001 cycles: 19243164 heartbeat IPC: 2.07915 cumulative IPC: 2.07866 (Simulation time: 0 hr 1 min 8 sec) 
Heartbeat CPU 0 instructions: 50000003 cycles: 24050600 heartbeat IPC: 2.08011 cumulative IPC: 2.07895 (Simulation time: 0 hr 1 min 28 sec) 

Warmup complete CPU 0 instructions: 50000003 cycles: 24050600 (Simulation time: 0 hr 1 min 28 sec) 

Heartbeat CPU 0 instructions: 60000000 cycles: 29877812 heartbeat IPC: 1.71609 cumulative IPC: 1.71609 (Simulation time: 0 hr 1 min 46 sec) 
Heartbeat CPU 0 instructions: 70000002 cycles: 35701862 heartbeat IPC: 1.71702 cumulative IPC: 1.71655 (Simulation time: 0 hr 2 min 6 sec) 
Heartbeat CPU 0 instructions: 80000002 cycles: 41534848 heartbeat IPC: 1.71439 cumulative IPC: 1.71583 (Simulation time: 0 hr 2 min 25 sec) 
Heartbeat CPU 0 instructions: 90000000 cycles: 47809299 heartbeat IPC: 1.59376 cumulative IPC: 1.68359 (Simulation time: 0 hr 2 min 45 sec) 
Heartbeat CPU 0 instructions: 100000003 cycles: 53632833 heartbeat IPC: 1.71717 cumulative IPC: 1.6902 (Simulation time: 0 hr 3 min 4 sec) 
Heartbeat CPU 0 instructions: 110000000 cycles: 59454774 heartbeat IPC: 1.71764 cumulative IPC: 1.69472 (Simulation time: 0 hr 3 min 24 sec) 
Heartbeat CPU 0 instructions: 120000000 cycles: 65271329 heartbeat IPC: 1.71923 cumulative IPC: 1.69817 (Simulation time: 0 hr 3 min 44 sec) 
Heartbeat CPU 0 instructions: 130000001 cycles: 71091158 heartbeat IPC: 1.71826 cumulative IPC: 1.70066 (Simulation time: 0 hr 4 min 4 sec) 
Heartbeat CPU 0 instructions: 140000001 cycles: 76952071 heartbeat IPC: 1.70622 cumulative IPC: 1.70128 (Simulation time: 0 hr 4 min 24 sec) 
Heartbeat CPU 0 instructions: 150000003 cycles: 82764808 heartbeat IPC: 1.72036 cumulative IPC: 1.70317 (Simulation time: 0 hr 4 min 43 sec) 
Heartbeat CPU 0 instructions: 160000001 cycles: 88580230 heartbeat IPC: 1.71957 cumulative IPC: 1.70464 (Simulation time: 0 hr 5 min 3 sec) 
Heartbeat CPU 0 instructions: 170000001 cycles: 94399178 heartbeat IPC: 1.71852 cumulative IPC: 1.70579 (Simulation time: 0 hr 5 min 22 sec) 
Heartbeat CPU 0 instructions: 180000003 cycles: 100306588 heartbeat IPC: 1.69279 cumulative IPC: 1.70478 (Simulation time: 0 hr 5 min 41 sec) 
Heartbeat CPU 0 instructions: 190000000 cycles: 106081797 heartbeat IPC: 1.73154 cumulative IPC: 1.70667 (Simulation time: 0 hr 5 min 59 sec) 
Heartbeat CPU 0 instructions: 200000002 cycles: 113412206 heartbeat IPC: 1.36418 cumulative IPC: 1.67857 (Simulation time: 0 hr 6 min 18 sec) 
Heartbeat CPU 0 instructions: 210000002 cycles: 120874153 heartbeat IPC: 1.34013 cumulative IPC: 1.65249 (Simulation time: 0 hr 6 min 35 sec) 
Heartbeat CPU 0 instructions: 220000000 cycles: 128521474 heartbeat IPC: 1.30765 cumulative IPC: 1.62725 (Simulation time: 0 hr 6 min 52 sec) 
Heartbeat CPU 0 instructions: 230000000 cycles: 135948156 heartbeat IPC: 1.3465 cumulative IPC: 1.60861 (Simulation time: 0 hr 7 min 9 sec) 
Heartbeat CPU 0 instructions: 240000003 cycles: 142999022 heartbeat IPC: 1.41827 cumulative IPC: 1.59733 (Simulation time: 0 hr 7 min 26 sec) 
Heartbeat CPU 0 instructions: 250000003 cycles: 149225904 heartbeat IPC: 1.60594 cumulative IPC: 1.59776 (Simulation time: 0 hr 7 min 42 sec) 
Finished CPU 0 instructions: 200000000 cycles: 125175304 cumulative IPC: 1.59776 (Simulation time: 0 hr 7 min 42 sec) 

ChampSim completed all CPUs

Region of Interest Statistics

CPU 0 cumulative IPC: 1.59776 instructions: 200000000 cycles: 125175304
L1D TOTAL     ACCESS:   69097338  HIT:   68132099  MISS:     965239
L1D LOAD      ACCESS:   56982009  HIT:   56549376  MISS:     432633
L1D RFO       ACCESS:   12115329  HIT:   11582723  MISS:     532606
L1D PREFETCH  ACCESS:          0  HIT:          0  MISS:          0
L1D WRITEBACK ACCESS:          0  HIT:          0  MISS:          0
L1D PREFETCH  REQUESTED:          0  ISSUED:          0  USEFUL:          0  USELESS:          0
L1D AVERAGE MISS LATENCY: 63.9117 cycles
L1I TOTAL     ACCESS:   33067060  HIT:   33067053  MISS:          7
L1I LOAD      ACCESS:   33067060  HIT:   33067053  MISS:          7
L1I RFO       ACCESS:          0  HIT:          0  MISS:          0
L1I PREFETCH  ACCESS:          0  HIT:          0  MISS:          0
L1I WRITEBACK ACCESS:          0  HIT:          0  MISS:          0
L1I PREFETCH  REQUESTED:          0  ISSUED:          0  USEFUL:          0  USELESS:          0
L1I AVERAGE MISS LATENCY: 216 cycles
L2C TOTAL     ACCESS:    1498844  HIT:     919756  MISS:     579088
L2C LOAD      ACCESS:     431829  HIT:     384675  MISS:      47154
L2C RFO       ACCESS:     532600  HIT:        739  MISS:     531861
L2C PREFETCH  ACCESS:          0  HIT:          0  MISS:          0
L2C WRITEBACK ACCESS:     534415  HIT:     534342  MISS:         73
L2C PREFETCH  REQUESTED:          0  ISSUED:          0  USEFUL:          0  USELESS:          0
L2C AVERAGE MISS LATENCY: 81.49 cycles
LLC TOTAL     ACCESS:    1112197  HIT:     972834  MISS:     139363
LLC LOAD      ACCESS:      47154  HIT:      45296  MISS:       1858
LLC RFO       ACCESS:     531861  HIT:     394359  MISS:     137502
LLC PREFETCH  ACCESS:          0  HIT:          0  MISS:          0
LLC WRITEBACK ACCESS:     533182  HIT:     533179  MISS:          3
LLC PREFETCH  REQUESTED:          0  ISSUED:          0  USEFUL:          0  USELESS:          0
LLC AVERAGE MISS LATENCY: 213.944 cycles
Major fault: 0 Minor fault: 2245

DRAM Statistics
 CHANNEL 0
 RQ ROW_BUFFER_HIT:      81584  ROW_BUFFER_MISS:      57776
 DBUS_CONGESTED:       2459
 WQ ROW_BUFFER_HIT:      52109  ROW_BUFFER_MISS:      79381  FULL:          0

 AVG_CONGESTED_CYCLE: 6

CPU 0 Branch Prediction Accuracy: 99.4046% MPKI: 0.26293 Average ROB Occupancy at Mispredict: 88.6634

Branch types
NOT_BRANCH: 191167411 95.5837%
BRANCH_DIRECT_JUMP: 34474 0.017237%
BRANCH_INDIRECT: 11434 0.005717%
BRANCH_CONDITIONAL: 8724251 4.36213%
BRANCH_DIRECT_CALL: 30996 0.015498%
BRANCH_INDIRECT_CALL: 208 0.000104%
BRANCH_RETURN: 31204 0.015602%
BRANCH_OTHER: 0 0%

