
*** ChampSim Multicore Out-of-Order Simulator ***

Warmup Instructions: 50000000
Simulation Instructions: 200000000
Number of CPUs: 1
LLC sets: 4096
LLC ways: 16
Off-chip DRAM Size: 4096 MB Channels: 1 Width: 64-bit Data Rate: 3200 MT/s

CPU 0 runs /home/riscv/Documents/NextGenCompArch/Memory/ChampSim-master/dpc3_traces/456.hmmer-327B.champsimtrace.xz
CPU 0 Bimodal branch predictor
Heartbeat CPU 0 instructions: 10000000 cycles: 4817590 heartbeat IPC: 2.07573 cumulative IPC: 2.07573 (Simulation time: 0 hr 0 min 15 sec) 
Heartbeat CPU 0 instructions: 20000003 cycles: 9631350 heartbeat IPC: 2.07738 cumulative IPC: 2.07655 (Simulation time: 0 hr 0 min 33 sec) 
Heartbeat CPU 0 instructions: 30000001 cycles: 14433500 heartbeat IPC: 2.0824 cumulative IPC: 2.0785 (Simulation time: 0 hr 0 min 51 sec) 
Heartbeat CPU 0 instructions: 40000001 cycles: 19243159 heartbeat IPC: 2.07915 cumulative IPC: 2.07866 (Simulation time: 0 hr 1 min 11 sec) 
Heartbeat CPU 0 instructions: 50000003 cycles: 24050600 heartbeat IPC: 2.08011 cumulative IPC: 2.07895 (Simulation time: 0 hr 1 min 30 sec) 

Warmup complete CPU 0 instructions: 50000003 cycles: 24050600 (Simulation time: 0 hr 1 min 30 sec) 

Heartbeat CPU 0 instructions: 60000000 cycles: 29879209 heartbeat IPC: 1.71567 cumulative IPC: 1.71567 (Simulation time: 0 hr 1 min 50 sec) 
Heartbeat CPU 0 instructions: 70000002 cycles: 35703421 heartbeat IPC: 1.71697 cumulative IPC: 1.71632 (Simulation time: 0 hr 2 min 10 sec) 
Heartbeat CPU 0 instructions: 80000002 cycles: 41535381 heartbeat IPC: 1.71469 cumulative IPC: 1.71578 (Simulation time: 0 hr 2 min 30 sec) 
Heartbeat CPU 0 instructions: 90000000 cycles: 47872104 heartbeat IPC: 1.5781 cumulative IPC: 1.67915 (Simulation time: 0 hr 2 min 50 sec) 
Heartbeat CPU 0 instructions: 100000003 cycles: 53695638 heartbeat IPC: 1.71717 cumulative IPC: 1.68662 (Simulation time: 0 hr 3 min 10 sec) 
Heartbeat CPU 0 instructions: 110000000 cycles: 59517750 heartbeat IPC: 1.71759 cumulative IPC: 1.69171 (Simulation time: 0 hr 3 min 30 sec) 
Heartbeat CPU 0 instructions: 120000000 cycles: 65334989 heartbeat IPC: 1.71903 cumulative IPC: 1.69556 (Simulation time: 0 hr 3 min 50 sec) 
Heartbeat CPU 0 instructions: 130000001 cycles: 71155160 heartbeat IPC: 1.71816 cumulative IPC: 1.69835 (Simulation time: 0 hr 4 min 10 sec) 
Heartbeat CPU 0 instructions: 140000001 cycles: 77016073 heartbeat IPC: 1.70622 cumulative IPC: 1.69922 (Simulation time: 0 hr 4 min 30 sec) 
Heartbeat CPU 0 instructions: 150000003 cycles: 82828810 heartbeat IPC: 1.72036 cumulative IPC: 1.70131 (Simulation time: 0 hr 4 min 50 sec) 
Heartbeat CPU 0 instructions: 160000001 cycles: 88644232 heartbeat IPC: 1.71957 cumulative IPC: 1.70295 (Simulation time: 0 hr 5 min 10 sec) 
Heartbeat CPU 0 instructions: 170000001 cycles: 94463180 heartbeat IPC: 1.71852 cumulative IPC: 1.70424 (Simulation time: 0 hr 5 min 28 sec) 
Heartbeat CPU 0 instructions: 180000003 cycles: 100370599 heartbeat IPC: 1.69279 cumulative IPC: 1.70335 (Simulation time: 0 hr 5 min 46 sec) 
Heartbeat CPU 0 instructions: 190000000 cycles: 106145979 heartbeat IPC: 1.73149 cumulative IPC: 1.70533 (Simulation time: 0 hr 6 min 4 sec) 
Heartbeat CPU 0 instructions: 200000002 cycles: 113494778 heartbeat IPC: 1.36077 cumulative IPC: 1.67702 (Simulation time: 0 hr 6 min 22 sec) 
Heartbeat CPU 0 instructions: 210000002 cycles: 120955648 heartbeat IPC: 1.34033 cumulative IPC: 1.6511 (Simulation time: 0 hr 6 min 39 sec) 
Heartbeat CPU 0 instructions: 220000000 cycles: 128602065 heartbeat IPC: 1.3078 cumulative IPC: 1.62599 (Simulation time: 0 hr 6 min 56 sec) 
Heartbeat CPU 0 instructions: 230000000 cycles: 136030737 heartbeat IPC: 1.34614 cumulative IPC: 1.60743 (Simulation time: 0 hr 7 min 12 sec) 
Heartbeat CPU 0 instructions: 240000003 cycles: 142980751 heartbeat IPC: 1.43885 cumulative IPC: 1.59758 (Simulation time: 0 hr 7 min 29 sec) 
Heartbeat CPU 0 instructions: 250000003 cycles: 149086026 heartbeat IPC: 1.63793 cumulative IPC: 1.59955 (Simulation time: 0 hr 7 min 44 sec) 
Finished CPU 0 instructions: 200000000 cycles: 125035426 cumulative IPC: 1.59955 (Simulation time: 0 hr 7 min 44 sec) 

ChampSim completed all CPUs

Region of Interest Statistics

CPU 0 cumulative IPC: 1.59955 instructions: 200000000 cycles: 125035426
L1D TOTAL     ACCESS:   69107191  HIT:   68141948  MISS:     965243
L1D LOAD      ACCESS:   56984503  HIT:   56551865  MISS:     432638
L1D RFO       ACCESS:   12122688  HIT:   11590083  MISS:     532605
L1D PREFETCH  ACCESS:          0  HIT:          0  MISS:          0
L1D WRITEBACK ACCESS:          0  HIT:          0  MISS:          0
L1D PREFETCH  REQUESTED:          0  ISSUED:          0  USEFUL:          0  USELESS:          0
L1D AVERAGE MISS LATENCY: 63.5113 cycles
L1I TOTAL     ACCESS:   33065975  HIT:   33065968  MISS:          7
L1I LOAD      ACCESS:   33065975  HIT:   33065968  MISS:          7
L1I RFO       ACCESS:          0  HIT:          0  MISS:          0
L1I PREFETCH  ACCESS:          0  HIT:          0  MISS:          0
L1I WRITEBACK ACCESS:          0  HIT:          0  MISS:          0
L1I PREFETCH  REQUESTED:          0  ISSUED:          0  USEFUL:          0  USELESS:          0
L1I AVERAGE MISS LATENCY: 216 cycles
L2C TOTAL     ACCESS:    1498848  HIT:     919761  MISS:     579087
L2C LOAD      ACCESS:     431834  HIT:     384681  MISS:      47153
L2C RFO       ACCESS:     532599  HIT:        738  MISS:     531861
L2C PREFETCH  ACCESS:          0  HIT:          0  MISS:          0
L2C WRITEBACK ACCESS:     534415  HIT:     534342  MISS:         73
L2C PREFETCH  REQUESTED:          0  ISSUED:          0  USEFUL:          0  USELESS:          0
L2C AVERAGE MISS LATENCY: 80.8237 cycles
LLC TOTAL     ACCESS:    1112196  HIT:     976012  MISS:     136184
LLC LOAD      ACCESS:      47153  HIT:      45465  MISS:       1688
LLC RFO       ACCESS:     531861  HIT:     397368  MISS:     134493
LLC PREFETCH  ACCESS:          0  HIT:          0  MISS:          0
LLC WRITEBACK ACCESS:     533182  HIT:     533179  MISS:          3
LLC PREFETCH  REQUESTED:          0  ISSUED:          0  USEFUL:          0  USELESS:          0
LLC AVERAGE MISS LATENCY: 216.105 cycles
Major fault: 0 Minor fault: 2245

DRAM Statistics
 CHANNEL 0
 RQ ROW_BUFFER_HIT:      79861  ROW_BUFFER_MISS:      56320
 DBUS_CONGESTED:       2574
 WQ ROW_BUFFER_HIT:      40047  ROW_BUFFER_MISS:      91938  FULL:          0

 AVG_CONGESTED_CYCLE: 6

CPU 0 Branch Prediction Accuracy: 99.4046% MPKI: 0.26293 Average ROB Occupancy at Mispredict: 88.6743

Branch types
NOT_BRANCH: 191167411 95.5837%
BRANCH_DIRECT_JUMP: 34474 0.017237%
BRANCH_INDIRECT: 11434 0.005717%
BRANCH_CONDITIONAL: 8724251 4.36213%
BRANCH_DIRECT_CALL: 30996 0.015498%
BRANCH_INDIRECT_CALL: 208 0.000104%
BRANCH_RETURN: 31204 0.015602%
BRANCH_OTHER: 0 0%

