
*** ChampSim Multicore Out-of-Order Simulator ***

Warmup Instructions: 50000000
Simulation Instructions: 200000000
Number of CPUs: 1
LLC sets: 1024
LLC ways: 16
Off-chip DRAM Size: 4096 MB Channels: 1 Width: 64-bit Data Rate: 3200 MT/s

CPU 0 runs /home/riscv/Documents/NextGenCompArch/Memory/ChampSim-master/dpc3_traces/456.hmmer-327B.champsimtrace.xz
CPU 0 Bimodal branch predictor
Heartbeat CPU 0 instructions: 10000000 cycles: 4817598 heartbeat IPC: 2.07572 cumulative IPC: 2.07572 (Simulation time: 0 hr 0 min 16 sec) 
Heartbeat CPU 0 instructions: 20000003 cycles: 9631321 heartbeat IPC: 2.07739 cumulative IPC: 2.07656 (Simulation time: 0 hr 0 min 31 sec) 
Heartbeat CPU 0 instructions: 30000001 cycles: 14433644 heartbeat IPC: 2.08233 cumulative IPC: 2.07848 (Simulation time: 0 hr 0 min 46 sec) 
Heartbeat CPU 0 instructions: 40000001 cycles: 19243469 heartbeat IPC: 2.07908 cumulative IPC: 2.07863 (Simulation time: 0 hr 1 min 3 sec) 
Heartbeat CPU 0 instructions: 50000003 cycles: 24051280 heartbeat IPC: 2.07995 cumulative IPC: 2.07889 (Simulation time: 0 hr 1 min 20 sec) 

Warmup complete CPU 0 instructions: 50000003 cycles: 24051280 (Simulation time: 0 hr 1 min 20 sec) 

Heartbeat CPU 0 instructions: 60000000 cycles: 31564779 heartbeat IPC: 1.33094 cumulative IPC: 1.33094 (Simulation time: 0 hr 1 min 39 sec) 
Heartbeat CPU 0 instructions: 70000000 cycles: 39081168 heartbeat IPC: 1.33043 cumulative IPC: 1.33068 (Simulation time: 0 hr 1 min 59 sec) 
Heartbeat CPU 0 instructions: 80000002 cycles: 46607250 heartbeat IPC: 1.32871 cumulative IPC: 1.33002 (Simulation time: 0 hr 2 min 20 sec) 
Heartbeat CPU 0 instructions: 90000000 cycles: 53963969 heartbeat IPC: 1.3593 cumulative IPC: 1.33723 (Simulation time: 0 hr 2 min 42 sec) 
Heartbeat CPU 0 instructions: 100000003 cycles: 60639448 heartbeat IPC: 1.49802 cumulative IPC: 1.36656 (Simulation time: 0 hr 3 min 2 sec) 
Heartbeat CPU 0 instructions: 110000000 cycles: 68138801 heartbeat IPC: 1.33345 cumulative IPC: 1.36093 (Simulation time: 0 hr 3 min 23 sec) 
Heartbeat CPU 0 instructions: 120000000 cycles: 75648426 heartbeat IPC: 1.33162 cumulative IPC: 1.35666 (Simulation time: 0 hr 3 min 44 sec) 
Heartbeat CPU 0 instructions: 130000001 cycles: 83153650 heartbeat IPC: 1.33241 cumulative IPC: 1.35358 (Simulation time: 0 hr 4 min 6 sec) 
Heartbeat CPU 0 instructions: 140000001 cycles: 90726187 heartbeat IPC: 1.32056 cumulative IPC: 1.34983 (Simulation time: 0 hr 4 min 27 sec) 
Heartbeat CPU 0 instructions: 150000003 cycles: 98253300 heartbeat IPC: 1.32853 cumulative IPC: 1.34767 (Simulation time: 0 hr 4 min 47 sec) 
Heartbeat CPU 0 instructions: 160000003 cycles: 105750690 heartbeat IPC: 1.3338 cumulative IPC: 1.3464 (Simulation time: 0 hr 5 min 8 sec) 
Heartbeat CPU 0 instructions: 170000001 cycles: 113291795 heartbeat IPC: 1.32607 cumulative IPC: 1.34468 (Simulation time: 0 hr 5 min 28 sec) 
Heartbeat CPU 0 instructions: 180000003 cycles: 120174270 heartbeat IPC: 1.45297 cumulative IPC: 1.35243 (Simulation time: 0 hr 5 min 48 sec) 
Heartbeat CPU 0 instructions: 190000000 cycles: 127429890 heartbeat IPC: 1.37824 cumulative IPC: 1.35425 (Simulation time: 0 hr 6 min 8 sec) 
Heartbeat CPU 0 instructions: 200000002 cycles: 134952873 heartbeat IPC: 1.32926 cumulative IPC: 1.35255 (Simulation time: 0 hr 6 min 28 sec) 
Heartbeat CPU 0 instructions: 210000002 cycles: 142459586 heartbeat IPC: 1.33214 cumulative IPC: 1.35126 (Simulation time: 0 hr 6 min 48 sec) 
Heartbeat CPU 0 instructions: 220000000 cycles: 150217735 heartbeat IPC: 1.28897 cumulative IPC: 1.34743 (Simulation time: 0 hr 7 min 8 sec) 
Heartbeat CPU 0 instructions: 230000000 cycles: 157710959 heartbeat IPC: 1.33454 cumulative IPC: 1.3467 (Simulation time: 0 hr 7 min 27 sec) 
Heartbeat CPU 0 instructions: 240000003 cycles: 165337973 heartbeat IPC: 1.31113 cumulative IPC: 1.34478 (Simulation time: 0 hr 7 min 45 sec) 
Heartbeat CPU 0 instructions: 250000003 cycles: 172799062 heartbeat IPC: 1.34029 cumulative IPC: 1.34456 (Simulation time: 0 hr 8 min 3 sec) 
Finished CPU 0 instructions: 200000000 cycles: 148747782 cumulative IPC: 1.34456 (Simulation time: 0 hr 8 min 3 sec) 

ChampSim completed all CPUs

Region of Interest Statistics

CPU 0 cumulative IPC: 1.34456 instructions: 200000000 cycles: 148747782
L1D TOTAL     ACCESS:   68208640  HIT:   67243577  MISS:     965063
L1D LOAD      ACCESS:   56839742  HIT:   56407282  MISS:     432460
L1D RFO       ACCESS:   11368898  HIT:   10836295  MISS:     532603
L1D PREFETCH  ACCESS:          0  HIT:          0  MISS:          0
L1D WRITEBACK ACCESS:          0  HIT:          0  MISS:          0
L1D PREFETCH  REQUESTED:          0  ISSUED:          0  USEFUL:          0  USELESS:          0
L1D AVERAGE MISS LATENCY: 147.338 cycles
L1I TOTAL     ACCESS:   33149066  HIT:   33149059  MISS:          7
L1I LOAD      ACCESS:   33149066  HIT:   33149059  MISS:          7
L1I RFO       ACCESS:          0  HIT:          0  MISS:          0
L1I PREFETCH  ACCESS:          0  HIT:          0  MISS:          0
L1I WRITEBACK ACCESS:          0  HIT:          0  MISS:          0
L1I PREFETCH  REQUESTED:          0  ISSUED:          0  USEFUL:          0  USELESS:          0
L1I AVERAGE MISS LATENCY: 216 cycles
L2C TOTAL     ACCESS:    1498668  HIT:     919593  MISS:     579075
L2C LOAD      ACCESS:     431660  HIT:     384519  MISS:      47141
L2C RFO       ACCESS:     532597  HIT:        736  MISS:     531861
L2C PREFETCH  ACCESS:          0  HIT:          0  MISS:          0
L2C WRITEBACK ACCESS:     534411  HIT:     534338  MISS:         73
L2C PREFETCH  REQUESTED:          0  ISSUED:          0  USEFUL:          0  USELESS:          0
L2C AVERAGE MISS LATENCY: 220.514 cycles
LLC TOTAL     ACCESS:    1112184  HIT:     598648  MISS:     513536
LLC LOAD      ACCESS:      47141  HIT:      29972  MISS:      17169
LLC RFO       ACCESS:     531861  HIT:      35541  MISS:     496320
LLC PREFETCH  ACCESS:          0  HIT:          0  MISS:          0
LLC WRITEBACK ACCESS:     533182  HIT:     533135  MISS:         47
LLC PREFETCH  REQUESTED:          0  ISSUED:          0  USEFUL:          0  USELESS:          0
LLC AVERAGE MISS LATENCY: 214.825 cycles
Major fault: 0 Minor fault: 2245

DRAM Statistics
 CHANNEL 0
 RQ ROW_BUFFER_HIT:     299224  ROW_BUFFER_MISS:     214265
 DBUS_CONGESTED:      16450
 WQ ROW_BUFFER_HIT:     135960  ROW_BUFFER_MISS:     362462  FULL:          0

 AVG_CONGESTED_CYCLE: 6

CPU 0 Branch Prediction Accuracy: 99.4046% MPKI: 0.26293 Average ROB Occupancy at Mispredict: 88.1909

Branch types
NOT_BRANCH: 191167411 95.5837%
BRANCH_DIRECT_JUMP: 34474 0.017237%
BRANCH_INDIRECT: 11434 0.005717%
BRANCH_CONDITIONAL: 8724251 4.36213%
BRANCH_DIRECT_CALL: 30996 0.015498%
BRANCH_INDIRECT_CALL: 208 0.000104%
BRANCH_RETURN: 31204 0.015602%
BRANCH_OTHER: 0 0%

